II7 grade2 ideal
     RDKit          3D

223232  0  0  1  0  0  0  0  0999 V2000
    6.9680   -5.0320    1.7000 C   0  0  0  0  0  0  0  0  0  0  0  0
    6.8890   -4.1340    0.4510 C   0  0  1  0  0  0  0  0  0  0  0  0
    8.1760   -4.1760   -0.3770 C   0  0  0  0  0  0  0  0  0  0  0  0
    5.7310   -4.4670   -0.3630 N   0  0  0  0  0  0  0  0  0  0  0  0
    9.1700   -4.7680    0.0310 O   0  0  0  0  0  0  0  0  0  0  0  0
    7.6740   -4.4050    2.8790 C   0  0  0  0  0  0  0  0  0  0  0  0
    7.1050   -3.3400    3.5650 C   0  0  0  0  0  0  0  0  0  0  0  0
    7.7310   -2.7790    4.6640 C   0  0  0  0  0  0  0  0  0  0  0  0
    8.9500   -3.2820    5.0960 C   0  0  0  0  0  0  0  0  0  0  0  0
    9.5300   -4.3460    4.4220 C   0  0  0  0  0  0  0  0  0  0  0  0
    8.8930   -4.8980    3.3250 C   0  0  0  0  0  0  0  0  0  0  0  0
    9.5870   -2.7420    6.1770 O   0  0  0  0  0  0  0  0  0  0  0  0
    8.7530   -2.2460   -1.7890 C   0  0  1  0  0  0  0  0  0  0  0  0
    7.7930   -1.0950   -1.4700 C   0  0  0  0  0  0  0  0  0  0  0  0
    8.1370   -3.5430   -1.5560 N   0  0  0  0  0  0  0  0  0  0  0  0
    6.5820   -1.2910   -1.4040 O   0  0  0  0  0  0  0  0  0  0  0  0
    8.1810   -0.5980   -4.8670 C   0  0  0  0  0  0  0  0  0  0  0  0
    7.2370   -0.3340   -5.8450 C   0  0  0  0  0  0  0  0  0  0  0  0
    6.3660   -1.3210   -6.2530 C   0  0  0  0  0  0  0  0  0  0  0  0
    6.4380   -2.5740   -5.6830 C   0  0  0  0  0  0  0  0  0  0  0  0
    7.3810   -2.8410   -4.7040 C   0  0  0  0  0  0  0  0  0  0  0  0
    8.2640   -1.8560   -4.2830 C   0  0  0  0  0  0  0  0  0  0  0  0
    9.3010   -2.1480   -3.2250 C   0  0  0  0  0  0  0  0  0  0  0  0
    9.6740    1.8360   -0.1650 C   0  0  0  0  0  0  0  0  0  0  0  0
    8.7600    0.6160    0.0140 C   0  0  1  0  0  0  0  0  0  0  0  0
    7.5940    0.9190    0.9620 C   0  0  0  0  0  0  0  0  0  0  0  0
    8.3470    0.1100   -1.2870 N   0  0  0  0  0  0  0  0  0  0  0  0
    7.7820    0.9730    2.1740 O   0  0  0  0  0  0  0  0  0  0  0  0
   10.5120    2.1410    1.0320 C   0  0  0  0  0  0  0  0  0  0  0  0
   11.6000    1.3830    1.4000 N   0  0  0  0  0  0  0  0  0  0  0  0
   12.1200    1.9290    2.5140 C   0  0  0  0  0  0  0  0  0  0  0  0
   11.4380    2.9940    2.8920 N   0  0  0  0  0  0  0  0  0  0  0  0
   10.4310    3.1270    1.9650 C   0  0  0  0  0  0  0  0  0  0  0  0
    1.1910    5.2140    1.0160 C   0  0  1  0  0  0  0  0  0  0  0  0
    1.7560    6.2460    0.0350 C   0  0  0  0  0  0  0  0  0  0  0  0
    2.0780    4.0770    1.2140 N   0  0  0  0  0  0  0  0  0  0  0  0
    2.3350    7.2280    0.4640 O   0  0  0  0  0  0  0  0  0  0  0  0
   -1.4250    5.0420    3.1190 C   0  0  0  0  0  0  0  0  0  0  0  0
   -2.2170    4.2560    3.9390 C   0  0  0  0  0  0  0  0  0  0  0  0
   -1.6390    3.4420    4.8900 C   0  0  0  0  0  0  0  0  0  0  0  0
   -0.2670    3.4150    5.0210 C   0  0  0  0  0  0  0  0  0  0  0  0
    0.5280    4.2000    4.2030 C   0  0  0  0  0  0  0  0  0  0  0  0
   -0.0420    5.0240    3.2410 C   0  0  0  0  0  0  0  0  0  0  0  0
    0.8220    5.8840    2.3510 C   0  0  0  0  0  0  0  0  0  0  0  0
   -0.6780    5.3830   -2.0120 C   0  0  0  0  0  0  0  0  0  0  0  0
    1.6030    6.0460   -1.2850 N   0  0  0  0  0  0  0  0  0  0  0  0
    0.4070    6.4670   -2.0190 C   0  0  1  0  0  0  0  0  0  0  0  0
    0.9480    6.6980   -3.4330 C   0  0  0  0  0  0  0  0  0  0  0  0
    2.0310    5.6440   -3.5740 C   0  0  0  0  0  0  0  0  0  0  0  0
    2.6220    5.4650   -2.1780 C   0  0  0  0  0  0  0  0  0  0  0  0
   -0.4060    4.2390   -1.6960 O   0  0  0  0  0  0  0  0  0  0  0  0
   -3.2260    5.6660   -0.1780 C   0  0  0  0  0  0  0  0  0  0  0  0
   -1.9290    5.7340   -2.3590 N   0  0  0  0  0  0  0  0  0  0  0  0
   -2.8510    6.4270   -1.4510 C   0  0  1  0  0  0  0  0  0  0  0  0
   -4.0870    6.6970   -2.3290 C   0  0  0  0  0  0  0  0  0  0  0  0
   -3.5940    6.5510   -3.7590 C   0  0  0  0  0  0  0  0  0  0  0  0
   -2.5470    5.4720   -3.6660 C   0  0  0  0  0  0  0  0  0  0  0  0
   -3.6650    6.2690    0.7970 O   0  0  0  0  0  0  0  0  0  0  0  0
   -3.5290    1.9460   -0.5220 C   0  0  0  0  0  0  0  0  0  0  0  0
   -4.0960    3.3710   -0.4560 C   0  0  1  0  0  0  0  0  0  0  0  0
   -5.2370    3.4640    0.5600 C   0  0  0  0  0  0  0  0  0  0  0  0
   -3.0430    4.3390   -0.1940 N   0  0  0  0  0  0  0  0  0  0  0  0
   -5.0160    3.8160    1.7160 O   0  0  0  0  0  0  0  0  0  0  0  0
   -2.9050    1.4850    0.7530 C   0  0  0  0  0  0  0  0  0  0  0  0
   -3.6300    0.9390    1.7870 N   0  0  0  0  0  0  0  0  0  0  0  0
   -2.7660    0.6190    2.7670 C   0  0  0  0  0  0  0  0  0  0  0  0
   -1.5270    0.9240    2.4360 N   0  0  0  0  0  0  0  0  0  0  0  0
   -1.6130    1.4660    1.1750 C   0  0  0  0  0  0  0  0  0  0  0  0
   -8.2290    2.7650    1.8100 C   0  0  1  0  0  0  0  0  0  0  0  0
   -7.3050    2.1370    0.7480 C   0  0  1  0  0  0  0  0  0  0  0  0
   -8.0650    1.3260   -0.3030 C   0  0  0  0  0  0  0  0  0  0  0  0
   -6.4550    3.1320    0.1150 N   0  0  0  0  0  0  0  0  0  0  0  0
   -9.2930    1.3010   -0.3160 O   0  0  0  0  0  0  0  0  0  0  0  0
   -7.4530    3.1440    2.9490 O   0  0  0  0  0  0  0  0  0  0  0  0
   -8.9810    3.9790    1.3000 C   0  0  0  0  0  0  0  0  0  0  0  0
   -7.8330   -1.4650   -2.3450 C   0  0  0  0  0  0  0  0  0  0  0  0
   -7.1610   -0.8020   -1.1310 C   0  0  1  0  0  0  0  0  0  0  0  0
   -5.6820   -1.1850   -1.0790 C   0  0  0  0  0  0  0  0  0  0  0  0
   -7.3140    0.6440   -1.1760 N   0  0  0  0  0  0  0  0  0  0  0  0
   -5.0520   -1.3870   -2.1140 O   0  0  0  0  0  0  0  0  0  0  0  0
   -9.3350   -1.5560   -2.2380 C   0  0  0  0  0  0  0  0  0  0  0  0
   -9.9340   -2.5110   -1.4290 C   0  0  0  0  0  0  0  0  0  0  0  0
  -11.3120   -2.6160   -1.3440 C   0  0  0  0  0  0  0  0  0  0  0  0
  -12.1160   -1.7550   -2.0750 C   0  0  0  0  0  0  0  0  0  0  0  0
  -11.5320   -0.7950   -2.8870 C   0  0  0  0  0  0  0  0  0  0  0  0
  -10.1530   -0.7020   -2.9630 C   0  0  0  0  0  0  0  0  0  0  0  0
  -13.4750   -1.8640   -1.9840 O   0  0  0  0  0  0  0  0  0  0  0  0
   -4.6930   -2.2320    2.3510 C   0  0  1  0  0  0  0  0  0  0  0  0
   -4.9700   -2.5190    0.8640 C   0  0  2  0  0  0  0  0  0  0  0  0
   -3.8300   -3.3090    0.2220 C   0  0  0  0  0  0  0  0  0  0  0  0
   -5.1340   -1.2710    0.1390 N   0  0  0  0  0  0  0  0  0  0  0  0
   -2.6580   -3.0410    0.4760 O   0  0  0  0  0  0  0  0  0  0  0  0
   -5.7090   -1.3580    2.8460 O   0  0  0  0  0  0  0  0  0  0  0  0
   -4.6690   -3.4910    3.1950 C   0  0  0  0  0  0  0  0  0  0  0  0
   -3.6690   -6.1570    0.8510 C   0  0  0  0  0  0  0  0  0  0  0  0
   -3.7880   -5.6510   -0.5920 C   0  0  2  0  0  0  0  0  0  0  0  0
   -2.5210   -5.9240   -1.4090 C   0  0  0  0  0  0  0  0  0  0  0  0
   -4.1920   -4.2530   -0.6560 N   0  0  0  0  0  0  0  0  0  0  0  0
   -2.5010   -6.8270   -2.2420 O   0  0  0  0  0  0  0  0  0  0  0  0
   -3.6120   -7.6810    1.0320 C   0  0  1  0  0  0  0  0  0  0  0  0
   -2.9030   -8.0570    2.3280 C   0  0  0  0  0  0  0  0  0  0  0  0
   -5.0080   -8.2950    1.0140 C   0  0  0  0  0  0  0  0  0  0  0  0
    0.7250   -4.3900   -0.3340 C   0  0  0  0  0  0  0  0  0  0  0  0
   -0.2370   -5.5640   -0.5460 C   0  0  2  0  0  0  0  0  0  0  0  0
    0.4510   -6.5950   -1.4390 C   0  0  0  0  0  0  0  0  0  0  0  0
   -1.4710   -5.1220   -1.1760 N   0  0  0  0  0  0  0  0  0  0  0  0
    0.5120   -6.4130   -2.6580 O   0  0  0  0  0  0  0  0  0  0  0  0
    1.9840   -4.7010    0.9360 S   0  0  0  0  0  0  0  0  0  0  0  0
    0.9630   -7.6590   -0.8390 N   0  0  0  0  0  0  0  0  0  0  0  0
    4.4870   -4.0510   -0.1050 C   0  0  0  0  0  0  0  0  0  0  0  0
    4.1950   -2.8700    0.0640 O   0  0  0  0  0  0  0  0  0  0  0  0
    5.8790    2.3910   -0.0530 C   0  0  2  0  0  0  0  0  0  0  0  0
    5.8220    3.5200    0.9810 C   0  0  0  0  0  0  0  0  0  0  0  0
    4.3890    3.8870    0.5080 C   0  0  1  0  0  0  0  0  0  0  0  0
    4.3610    2.5100   -0.2100 C   0  0  0  0  0  0  0  0  0  0  0  0
    3.3620    4.1740    1.5880 C   0  0  0  0  0  0  0  0  0  0  0  0
    6.3880    1.0990    0.4050 N   0  0  0  0  0  0  0  0  0  0  0  0
    3.7000    4.4620    2.7340 O   0  0  0  0  0  0  0  0  0  0  0  0
    3.4410   -5.1450   -0.0490 C   0  0  0  0  0  0  0  0  0  0  0  0
    7.4630   -5.9800    1.4740 H   0  0  0  0  0  0  0  0  0  0  0  0
    5.9660   -5.3270    2.0220 H   0  0  0  0  0  0  0  0  0  0  0  0
    6.7220   -3.0950    0.7450 H   0  0  0  0  0  0  0  0  0  0  0  0
    5.8310   -5.0520   -1.1860 H   0  0  0  0  0  0  0  0  0  0  0  0
    6.1530   -2.9300    3.2490 H   0  0  0  0  0  0  0  0  0  0  0  0
    7.2520   -1.9480    5.1690 H   0  0  0  0  0  0  0  0  0  0  0  0
   10.4820   -4.7390    4.7600 H   0  0  0  0  0  0  0  0  0  0  0  0
    9.3730   -5.7260    2.8180 H   0  0  0  0  0  0  0  0  0  0  0  0
    9.0550   -2.0100    6.5320 H   0  0  0  0  0  0  0  0  0  0  0  0
    9.5910   -2.1800   -1.0900 H   0  0  0  0  0  0  0  0  0  0  0  0
    7.6520   -3.9960   -2.3220 H   0  0  0  0  0  0  0  0  0  0  0  0
    8.8540    0.1960   -4.5660 H   0  0  0  0  0  0  0  0  0  0  0  0
    7.1820    0.6520   -6.2930 H   0  0  0  0  0  0  0  0  0  0  0  0
    5.6270   -1.1120   -7.0190 H   0  0  0  0  0  0  0  0  0  0  0  0
    5.7540   -3.3530   -6.0000 H   0  0  0  0  0  0  0  0  0  0  0  0
    7.4190   -3.8390   -4.2850 H   0  0  0  0  0  0  0  0  0  0  0  0
    9.8090   -3.0730   -3.5100 H   0  0  0  0  0  0  0  0  0  0  0  0
   10.0810   -1.3830   -3.2780 H   0  0  0  0  0  0  0  0  0  0  0  0
   10.3400    1.6560   -1.0120 H   0  0  0  0  0  0  0  0  0  0  0  0
    9.1090    2.7330   -0.4290 H   0  0  0  0  0  0  0  0  0  0  0  0
    9.3240   -0.1840    0.5010 H   0  0  0  0  0  0  0  0  0  0  0  0
    8.4610    0.6530   -2.1370 H   0  0  0  0  0  0  0  0  0  0  0  0
   11.9950    0.6010    0.8940 H   0  0  0  0  0  0  0  0  0  0  0  0
   12.9870    1.5260    3.0150 H   0  0  0  0  0  0  0  0  0  0  0  0
    9.7080    3.9270    2.0250 H   0  0  0  0  0  0  0  0  0  0  0  0
    0.2830    4.8120    0.5600 H   0  0  0  0  0  0  0  0  0  0  0  0
    1.7070    3.1420    1.0810 H   0  0  0  0  0  0  0  0  0  0  0  0
   -1.9090    5.6720    2.3810 H   0  0  0  0  0  0  0  0  0  0  0  0
   -3.2960    4.2780    3.8350 H   0  0  0  0  0  0  0  0  0  0  0  0
   -2.2620    2.8280    5.5290 H   0  0  0  0  0  0  0  0  0  0  0  0
    0.1930    2.7760    5.7660 H   0  0  0  0  0  0  0  0  0  0  0  0
    1.6040    4.1590    4.3280 H   0  0  0  0  0  0  0  0  0  0  0  0
    0.2660    6.8070    2.1710 H   0  0  0  0  0  0  0  0  0  0  0  0
    1.7180    6.1930    2.8940 H   0  0  0  0  0  0  0  0  0  0  0  0
    0.0320    7.4080   -1.6080 H   0  0  0  0  0  0  0  0  0  0  0  0
    0.2050    6.6260   -4.2310 H   0  0  0  0  0  0  0  0  0  0  0  0
    1.4040    7.6890   -3.4970 H   0  0  0  0  0  0  0  0  0  0  0  0
    1.6340    4.6990   -3.9540 H   0  0  0  0  0  0  0  0  0  0  0  0
    2.7930    5.9880   -4.2790 H   0  0  0  0  0  0  0  0  0  0  0  0
    3.5900    5.9590   -2.0600 H   0  0  0  0  0  0  0  0  0  0  0  0
    2.7390    4.4070   -1.9300 H   0  0  0  0  0  0  0  0  0  0  0  0
   -2.4200    7.3780   -1.1280 H   0  0  0  0  0  0  0  0  0  0  0  0
   -4.4550    7.7140   -2.1690 H   0  0  0  0  0  0  0  0  0  0  0  0
   -4.9360    6.0360   -2.1390 H   0  0  0  0  0  0  0  0  0  0  0  0
   -3.1250    7.4850   -4.0790 H   0  0  0  0  0  0  0  0  0  0  0  0
   -4.3980    6.3250   -4.4640 H   0  0  0  0  0  0  0  0  0  0  0  0
   -1.8250    5.5120   -4.4850 H   0  0  0  0  0  0  0  0  0  0  0  0
   -2.9820    4.4700   -3.6300 H   0  0  0  0  0  0  0  0  0  0  0  0
   -2.7890    1.8800   -1.3240 H   0  0  0  0  0  0  0  0  0  0  0  0
   -4.3140    1.2390   -0.8020 H   0  0  0  0  0  0  0  0  0  0  0  0
   -4.5010    3.6070   -1.4430 H   0  0  0  0  0  0  0  0  0  0  0  0
   -2.0890    4.0360   -0.0260 H   0  0  0  0  0  0  0  0  0  0  0  0
   -4.6280    1.0270    1.9230 H   0  0  0  0  0  0  0  0  0  0  0  0
   -3.0840    0.1700    3.6960 H   0  0  0  0  0  0  0  0  0  0  0  0
   -0.7250    1.8070    0.6630 H   0  0  0  0  0  0  0  0  0  0  0  0
   -8.9680    2.0410    2.1660 H   0  0  0  0  0  0  0  0  0  0  0  0
   -6.6350    1.4160    1.2270 H   0  0  0  0  0  0  0  0  0  0  0  0
   -6.7450    3.6230   -0.7250 H   0  0  0  0  0  0  0  0  0  0  0  0
   -8.0810    3.4470    3.6280 H   0  0  0  0  0  0  0  0  0  0  0  0
   -9.7080    4.3020    2.0490 H   0  0  0  0  0  0  0  0  0  0  0  0
   -9.5260    3.7390    0.3830 H   0  0  0  0  0  0  0  0  0  0  0  0
   -8.3280    4.8380    1.1240 H   0  0  0  0  0  0  0  0  0  0  0  0
   -7.5740   -0.8990   -3.2430 H   0  0  0  0  0  0  0  0  0  0  0  0
   -7.4570   -2.4780   -2.5140 H   0  0  0  0  0  0  0  0  0  0  0  0
   -7.6190   -1.1500   -0.2010 H   0  0  0  0  0  0  0  0  0  0  0  0
   -6.8440    1.1940   -1.8880 H   0  0  0  0  0  0  0  0  0  0  0  0
   -9.3360   -3.2000   -0.8430 H   0  0  0  0  0  0  0  0  0  0  0  0
  -11.7670   -3.3670   -0.7080 H   0  0  0  0  0  0  0  0  0  0  0  0
  -12.1340   -0.1080   -3.4710 H   0  0  0  0  0  0  0  0  0  0  0  0
   -9.7260    0.0590   -3.6060 H   0  0  0  0  0  0  0  0  0  0  0  0
  -13.8900   -1.1940   -2.5530 H   0  0  0  0  0  0  0  0  0  0  0  0
   -3.7340   -1.7200    2.4750 H   0  0  0  0  0  0  0  0  0  0  0  0
   -5.9230   -3.0460    0.7650 H   0  0  0  0  0  0  0  0  0  0  0  0
   -4.8180   -0.4040    0.5580 H   0  0  0  0  0  0  0  0  0  0  0  0
   -5.4370   -1.0800    3.7370 H   0  0  0  0  0  0  0  0  0  0  0  0
   -3.8160   -4.1290    2.9510 H   0  0  0  0  0  0  0  0  0  0  0  0
   -5.5990   -4.0550    3.0860 H   0  0  0  0  0  0  0  0  0  0  0  0
   -4.6000   -3.2350    4.2550 H   0  0  0  0  0  0  0  0  0  0  0  0
   -4.5100   -5.7750    1.4370 H   0  0  0  0  0  0  0  0  0  0  0  0
   -2.7860   -5.7150    1.3220 H   0  0  0  0  0  0  0  0  0  0  0  0
   -4.5990   -6.2040   -1.0760 H   0  0  0  0  0  0  0  0  0  0  0  0
   -4.7930   -3.9060   -1.3960 H   0  0  0  0  0  0  0  0  0  0  0  0
   -3.0430   -8.1430    0.2210 H   0  0  0  0  0  0  0  0  0  0  0  0
   -2.8690   -9.1420    2.4550 H   0  0  0  0  0  0  0  0  0  0  0  0
   -1.8720   -7.6940    2.3240 H   0  0  0  0  0  0  0  0  0  0  0  0
   -3.4140   -7.6250    3.1920 H   0  0  0  0  0  0  0  0  0  0  0  0
   -5.6440   -7.8470    1.7820 H   0  0  0  0  0  0  0  0  0  0  0  0
   -5.4950   -8.1570    0.0450 H   0  0  0  0  0  0  0  0  0  0  0  0
   -4.9620   -9.3700    1.2070 H   0  0  0  0  0  0  0  0  0  0  0  0
    1.2130   -4.0790   -1.2610 H   0  0  0  0  0  0  0  0  0  0  0  0
    0.1660   -3.5230    0.0290 H   0  0  0  0  0  0  0  0  0  0  0  0
   -0.5090   -6.0490    0.3950 H   0  0  0  0  0  0  0  0  0  0  0  0
   -1.5590   -4.1560   -1.4750 H   0  0  0  0  0  0  0  0  0  0  0  0
    0.9260   -7.8190    0.1620 H   0  0  0  0  0  0  0  0  0  0  0  0
    1.4200   -8.3550   -1.4190 H   0  0  0  0  0  0  0  0  0  0  0  0
    6.3980    2.7350   -0.9530 H   0  0  0  0  0  0  0  0  0  0  0  0
    5.8800    3.1750    2.0170 H   0  0  0  0  0  0  0  0  0  0  0  0
    6.5750    4.3010    0.8500 H   0  0  0  0  0  0  0  0  0  0  0  0
    4.4180    4.6950   -0.2300 H   0  0  0  0  0  0  0  0  0  0  0  0
    3.7840    1.7450    0.3170 H   0  0  0  0  0  0  0  0  0  0  0  0
    4.0100    2.5520   -1.2440 H   0  0  0  0  0  0  0  0  0  0  0  0
    5.8410    0.2480    0.3220 H   0  0  0  0  0  0  0  0  0  0  0  0
    3.9350   -5.9990    0.4200 H   0  0  0  0  0  0  0  0  0  0  0  0
    3.1460   -5.4700   -1.0500 H   0  0  0  0  0  0  0  0  0  0  0  0
  1  2  1  0
  2  3  1  0
  2  4  1  0
  3  5  2  0
  1  6  1  0
  6  7  2  0
  7  8  1  0
  8  9  2  0
  9 10  1  0
 10 11  2  0
  6 11  1  0
  9 12  1  0
  3 15  1  0
 22 17  2  0
 18 17  1  0
 19 18  2  0
 20 19  1  0
 21 20  2  0
 22 21  1  0
 23 22  1  0
 13 23  1  0
 13 14  1  0
 13 15  1  0
 14 16  2  0
 14 27  1  0
 25 24  1  0
 25 26  1  0
 25 27  1  0
 26 28  2  0
 24 29  1  0
 29 30  1  0
 30 31  1  0
 31 32  2  0
 32 33  1  0
 29 33  2  0
 43 38  2  0
 39 38  1  0
 40 39  2  0
 41 40  1  0
 42 41  2  0
 43 42  1  0
 44 43  1  0
 34 44  1  0
 34 35  1  0
 34 36  1  0
 35 37  2  0
 35 46  1  0
 49 50  1  0
 48 49  1  0
 47 48  1  0
 46 50  1  0
 46 47  1  0
 45 51  2  0
 45 47  1  0
 45 53  1  0
 56 57  1  0
 55 56  1  0
 54 55  1  0
 53 57  1  0
 53 54  1  0
 52 58  2  0
 54 52  1  0
 52 62  1  0
 60 59  1  0
 60 61  1  0
 60 62  1  0
 61 63  2  0
 59 64  1  0
 64 65  1  0
 65 66  1  0
 66 67  2  0
 67 68  1  0
 64 68  2  0
 61 72  1  0
 71 73  2  0
 70 72  1  0
 70 71  1  0
 69 70  1  0
 69 74  1  0
 69 75  1  0
 71 79  1  0
 77 76  1  0
 77 78  1  0
 77 79  1  0
 78 80  2  0
 76 81  1  0
 81 82  2  0
 82 83  1  0
 83 84  2  0
 84 85  1  0
 85 86  2  0
 81 86  1  0
 84 87  1  0
 78 91  1  0
 90 92  2  0
 89 91  1  0
 89 90  1  0
 88 89  1  0
 88 93  1  0
 88 94  1  0
 90 98  1  0
 97 99  2  0
 96 98  1  0
 96 97  1  0
 95 96  1  0
 95100  1  0
100101  1  0
100102  1  0
 97106  1  0
104105  1  0
104106  1  0
105107  2  0
103108  1  0
105109  1  0
110111  2  0
110  4  1  0
112113  1  0
114113  1  0
114115  1  0
115112  1  0
114116  1  0
112117  1  0
116118  2  0
117 26  1  0
116 36  1  0
119110  1  0
108119  1  0
103104  1  0
  1120  1  0
  1121  1  0
  2122  1  1
  4123  1  0
  7124  1  0
  8125  1  0
 10126  1  0
 11127  1  0
 12128  1  0
 13129  1  1
 15130  1  0
 17131  1  0
 18132  1  0
 19133  1  0
 20134  1  0
 21135  1  0
 23136  1  0
 23137  1  0
 24138  1  0
 24139  1  0
 25140  1  1
 27141  1  0
 30142  1  0
 31143  1  0
 33144  1  0
 34145  1  6
 36146  1  0
 38147  1  0
 39148  1  0
 40149  1  0
 41150  1  0
 42151  1  0
 44152  1  0
 44153  1  0
 47154  1  1
 48155  1  0
 48156  1  0
 49157  1  0
 49158  1  0
 50159  1  0
 50160  1  0
 54161  1  1
 55162  1  0
 55163  1  0
 56164  1  0
 56165  1  0
 57166  1  0
 57167  1  0
 59168  1  0
 59169  1  0
 60170  1  6
 62171  1  0
 65172  1  0
 66173  1  0
 68174  1  0
 69175  1  1
 70176  1  1
 72177  1  0
 74178  1  0
 75179  1  0
 75180  1  0
 75181  1  0
 76182  1  0
 76183  1  0
 77184  1  1
 79185  1  0
 82186  1  0
 83187  1  0
 85188  1  0
 86189  1  0
 87190  1  0
 88191  1  6
 89192  1  1
 91193  1  0
 93194  1  0
 94195  1  0
 94196  1  0
 94197  1  0
 95198  1  0
 95199  1  0
 96200  1  6
 98201  1  0
100202  1  6
101203  1  0
101204  1  0
101205  1  0
102206  1  0
102207  1  0
102208  1  0
103209  1  0
103210  1  0
104211  1  1
106212  1  0
109213  1  0
109214  1  0
112215  1  6
113216  1  0
113217  1  0
114218  1  6
115219  1  0
115220  1  0
117221  1  0
119222  1  0
119223  1  0
A    1
C1
A    2
C2
A    3
C3
A    4
N4
A    5
O5
A    6
C6
A    7
C7
A    8
C8
A    9
C9
A   10
C10
A   11
C11
A   12
O12
A   13
C13
A   14
C14
A   15
N15
A   16
O16
A   17
C17
A   18
C18
A   19
C19
A   20
C20
A   21
C21
A   22
C22
A   23
C23
A   24
C24
A   25
C25
A   26
C26
A   27
N27
A   28
O28
A   29
C29
A   30
N30
A   31
C31
A   32
N32
A   33
C33
A   34
C34
A   35
C35
A   36
N36
A   37
O37
A   38
C38
A   39
C39
A   40
C40
A   41
C41
A   42
C42
A   43
C43
A   44
C44
A   45
C45
A   46
N46
A   47
C47
A   48
C48
A   49
C49
A   50
C50
A   51
O51
A   52
C52
A   53
N53
A   54
C54
A   55
C55
A   56
C56
A   57
C57
A   58
O58
A   59
C59
A   60
C60
A   61
C61
A   62
N62
A   63
O63
A   64
C64
A   65
N65
A   66
C66
A   67
N67
A   68
C68
A   69
C69
A   70
C70
A   71
C71
A   72
N72
A   73
O73
A   74
O74
A   75
C75
A   76
C76
A   77
C77
A   78
C78
A   79
N79
A   80
O80
A   81
C81
A   82
C82
A   83
C83
A   84
C84
A   85
C85
A   86
C86
A   87
O87
A   88
C88
A   89
C89
A   90
C90
A   91
N91
A   92
O92
A   93
O93
A   94
C94
A   95
C95
A   96
C96
A   97
C97
A   98
N98
A   99
O99
A  100
CA0
A  101
CA1
A  102
CA2
A  103
CA3
A  104
CA4
A  105
CA5
A  106
NA6
A  107
OA7
A  108
SA8
A  109
NA9
A  110
CB0
A  111
OB1
A  112
CB2
A  113
CB3
A  114
CB4
A  115
CB5
A  116
CB6
A  117
NB7
A  118
OB8
A  119
CB9
A  120
H1A
A  121
H1B
A  122
H2
A  123
H4
A  124
H7
A  125
H8
A  126
H10
A  127
H11
A  128
H12
A  129
H13
A  130
H15
A  131
H17
A  132
H18
A  133
H19
A  134
H20
A  135
H21
A  136
H23A
A  137
H23B
A  138
H24A
A  139
H24B
A  140
H25
A  141
H27
A  142
H30
A  143
H31
A  144
H33
A  145
H34
A  146
H36
A  147
H38
A  148
H39
A  149
H40
A  150
H41
A  151
H42
A  152
H44A
A  153
H44B
A  154
H47
A  155
H48A
A  156
H48B
A  157
H49A
A  158
H49B
A  159
H50A
A  160
H50B
A  161
H54
A  162
H55A
A  163
H55B
A  164
H56A
A  165
H56B
A  166
H57A
A  167
H57B
A  168
H59A
A  169
H59B
A  170
H60
A  171
H62
A  172
H65
A  173
H66
A  174
H68
A  175
H69
A  176
H70
A  177
H72
A  178
H74
A  179
H75A
A  180
H75B
A  181
H75C
A  182
H76A
A  183
H76B
A  184
H77
A  185
H79
A  186
H82
A  187
H83
A  188
H85
A  189
H86
A  190
H87
A  191
H88
A  192
H89
A  193
H91
A  194
H93
A  195
H94A
A  196
H94B
A  197
H94C
A  198
H95A
A  199
H95B
A  200
H96
A  201
H98
A  202
H100
A  203
HA1A
A  204
HA1B
A  205
HA1C
A  206
HA2A
A  207
HA2B
A  208
HA2C
A  209
HA3A
A  210
HA3B
A  211
H104
A  212
H106
A  213
HA9A
A  214
HA9B
A  215
H112
A  216
HB3A
A  217
HB3B
A  218
H114
A  219
HB5A
A  220
HB5B
A  221
H117
A  222
HB9A
A  223
HB9B
M  END
